CM ground mounted vertical 2016-07-21 17:01
CE ----------
GW  1    3  0.000000  0.000000  0.000000  0.000000  0.000000  0.050000  1.84E-03
GW  2   21  0.000000  0.000000  0.050000  0.000000  0.000000  20.00000  1.84E-03
GE  1
FR  0    1    0    0  3.900000  0.000000
GN  0    10   0    0  15.00000  0.010000  12.50000  1.62E-03
EX  0    1    2    1  1.000000  0.000000                                        
XQ
RP  4  360    1 1000   -90.000     0.000     1.000     0.000 5.000E+03
XQ
EN
